    tavg_freq = 5
    tavg_file_freq = 5
    tavg_freq_opt = 'nday'
    tavg_file_freq_opt = 'nday'
