&domain_nml
  nprocs_clinic = NPROCS_CLINIC
  nprocs_tropic = NPROCS_TROPIC
  clinic_distribution_type = 'balanced'
  tropic_distribution_type = 'cartesian'
  ew_boundary_type = 'cyclic'
  ns_boundary_type = 'closed'
/

&io_nml
  num_iotasks        = 1
  lredirect_stdout   = .true.
  log_filename       = 'OUTPUTL/LOG_FILENAME'
  luse_pointer_files = .true.
  pointer_filename   = 'OUTPUT/pop_pointer'
/

&time_manager_nml
  runid             = 'RUNID'
  stop_option       = 'nyear'
  stop_count        = 200
  time_mix_opt      = 'avgfit'
  fit_freq          = 1
  time_mix_freq     = TIME_MIX_FREQ
  dt_option         = 'steps_per_day'
  dt_count          = DT_COUNT
  impcor            = .true.
  laccel            = .false.
  accel_file        = 'INPUT/depth_accel'
  dtuxcel           = 1.0
  allow_leapyear    = .false.
  iyear0            = IYEAR0
  imonth0           = IMONTH0
  iday0             = IDAY0
  ihour0            = IHOUR0
  iminute0          = IMINUTE0
  isecond0          = ISECOND0
  date_separator    = ' '
/

&grid_nml
   horiz_grid_opt       = 'file'
   horiz_grid_file      = 'INPUT/horiz_grid'
   sfc_layer_opt        = 'varthick'
   vert_grid_opt        = 'file'
   vert_grid_file       = 'INPUT/vert_grid'
   topography_opt       = 'file'
   topography_file      = 'INPUT/topography'
   partial_bottom_cells = .false.
   bottom_cell_file     = 'unknown_bottom_cell'
   region_mask_file     = 'INPUT/region_mask'
   topo_smooth          = .false.
   flat_bottom          = .false.
   lremove_points       = .false.
/

&init_ts_nml
   init_ts_option   = 'INIT_TS_OPTION'
   init_ts_file     = 'INPUT/ts'
   init_ts_file_fmt = 'INIT_TS_FMT'
/

&diagnostics_nml
   diag_global_freq_opt   = 'nday'
   diag_global_freq       = 1
   diag_cfl_freq_opt      = 'nday'
   diag_cfl_freq          = 1
   diag_transp_freq_opt   = 'nday'
   diag_transp_freq       = 1
   diag_transport_file    = 'INPUT/transport_contents'
   diag_outfile           = 'OUTPUTDd'
   diag_transport_outfile = 'OUTPUTDt'
   diag_all_levels        = .false.
   cfl_all_levels         = .false.
/

&budget_diagnostics_nml
   ldiag_global_tracer_budgets = .true.
/  

&restart_nml
   restart_freq_opt = 'nyear' 
   restart_freq     = 1
   restart_outfile  = 'OUTPUTR'
   restart_fmt      = 'RESTART_FMT'
   leven_odd_on     = .false. 
   even_odd_freq    = 100000
   pressure_correction = .false.
/

&tavg_nml
   tavg_freq_opt  = 'nmonth'
   tavg_freq      = 1
   tavg_start_opt = 'nstep'
   tavg_start     = 0
   tavg_infile    = 'OUTPUTHrestart.end'
   tavg_fmt_in    = 'TAVG_FMT_IN'
   tavg_outfile   = 'OUTPUTH'
   tavg_fmt_out   = 'TAVG_FMT_OUT'
   tavg_contents  = 'INPUT/tavg_contents'
/

&scalar_nml
   scalar_contents = 'INPUT/scalar_contents'
/  

&history_nml
   history_freq_opt = 'never'
   history_freq     = 100000
   history_outfile  = 'OUTPUTHs'
   history_fmt      = 'HISTORY_FMT'
   history_contents = 'INPUT/history_contents'
/

&movie_nml
   movie_freq_opt  = 'never'
   movie_freq      = 100000
   movie_outfile   = 'OUTPUTHm'
   movie_fmt       = 'MOVIE_FMT'
   movie_contents  = 'INPUT/movie_contents'
/

&solver_nml
   solv_convrg    = 1.e-13
   solv_max_iters = 1000
   solv_ncheck    = 10
   lprecond       = .false.
   solv_type      = 'SOLVER_TYPE'
   precond_file   = 'empty'
/

&vertical_mix_nml
   vmix_choice = 'kpp'
   aidif       = 1.0
   bottom_drag = 1.0e-3
   implicit_vertical_mix = .true.
   convection_type = 'diffusion'
   nconvad = 2
   convect_diff = 1000.0
   convect_visc = 1000.0
   bottom_heat_flx = 0.0
   bottom_heat_flx_depth = 100000.00 
/

&vmix_const_nml
   const_vvc   = 0.25
   const_vdc   = 0.25
/

&vmix_rich_nml
   bckgrnd_vvc = 1.0
   bckgrnd_vdc = 0.1
   rich_mix    = 50.0
/

&vmix_kpp_nml
   bckgrnd_vdc1    = 0.524
   bckgrnd_vdc2    = 0.313
   bckgrnd_vdc_dpth= 1000.0e02
   bckgrnd_vdc_linv= 4.5e-05
   Prandtl         = 10.0
   rich_mix        = 50.0
   lrich           = .true.
   ldbl_diff       = .true.
   lshort_wave     = .true.
   lcheckekmo      = .false.
   num_v_smooth_Ri = 1
/

&advect_nml
   tadvect_ctype = 'centered'
/

&hmix_nml
   hmix_momentum_choice = 'anis'
   hmix_tracer_choice   = 'gent'
/

&hmix_del2u_nml
   lauto_hmix           = .true. 
   lvariable_hmix       = .false. 
   am                   = 1.e8
/

&hmix_del2t_nml
   lauto_hmix           = .true. 
   lvariable_hmix       = .false. 
   ah                   = 1.e8
/

&hmix_del4u_nml
   lauto_hmix           = .true. 
   lvariable_hmix       = .false. 
   am                   = -0.6e20
/

&hmix_del4t_nml
   lauto_hmix           = .true. 
   lvariable_hmix       = .false. 
   ah                   = -0.2e20
/

&hmix_gm_nml
   kappa_choice         = 'constant'
   slope_control_choice = 'notanh'
   kappa_depth_1        = 1.0
   kappa_depth_2        = 0.0
   kappa_depth_scale    = 150000.0
   ah                   = 0.8e7
   ah_bolus             = 0.8e7
   ah_bkg               = 0.0
   slm_r                = 0.3
   slm_b                = 0.3
   gm_bolus             = .false.
/

&hmix_aniso_nml
   hmix_alignment_choice = 'grid'
   lvariable_hmix_aniso = .true.
   lsmag_aniso = .false.
   visc_para = 1.0
   visc_perp = 1.0
   c_para = 0.0
   c_perp = 0.0
   u_para = 0.0
   u_perp = 0.0
   var_viscosity_infile      = '/scratch/maltrud/ccsm3/var_viscosity_infile'
   var_viscosity_infile_fmt  = 'VAR_VISCOSITY_FMT_IN'
   var_viscosity_outfile     = 'OUTPUTHv'
   var_viscosity_outfile_fmt = 'VAR_VISCOSITY_FMT_OUT'
   vconst_1       = 1.e7
   vconst_2       = 24.5
   vconst_3       = 0.2
   vconst_4       = 1.e-8
   vconst_5       = 3
   vconst_6       = 1.e7
   smag_lat       = 20.0
   smag_lat_fact  = 0.98
   smag_lat_gauss = 98.0
/

&state_nml
   state_choice = 'mwjf'
   state_file = 'internal'
   state_range_opt = 'enforce'
   state_range_freq = 100000   
/

&baroclinic_nml
   reset_to_freezing = .false.
/

&ice_nml
   ice_freq_opt = 'coupled'
   ice_freq     = 100000
   kmxice   = 1
/

&pressure_grad_nml
   lpressure_avg = .true.
   lbouss_correct = .false.
/

&topostress_nml
   ltopostress = .false.
   nsmooth_topo = 0
/

&xdisplay_nml
   lxdisplay = .false.
   nstep_xdisplay = 1
/

&forcing_ws_nml
   ws_data_type    = 'none'
   ws_data_inc     = 1.e20
   ws_interp_freq  = 'never'
   ws_interp_type  = 'nearest'
   ws_interp_inc   = 1.e20
   ws_filename     = 'unknown-ws'
   ws_file_fmt     = 'bin'
   ws_data_renorm  = 1.
/

&forcing_shf_nml
   shf_formulation    = 'restoring'
   shf_data_type      = 'none'
   shf_data_inc       = 1.e20
   shf_interp_freq    = 'never'
   shf_interp_type    = 'nearest'
   shf_interp_inc     = 1.e20
   shf_restore_tau    = 1.e20
   shf_weak_restore   = 0.0
   shf_strong_restore = 0.0
   shf_filename       = 'unknown-shf'
   shf_file_fmt       = 'bin'
   shf_data_renorm    = 1.
   jerlov_water_type  = 3
/

&forcing_sfwf_nml
   sfwf_formulation    = 'restoring'
   sfwf_data_type      = 'none'
   sfwf_data_inc       = 1.e20
   sfwf_interp_freq    = 'never'
   sfwf_interp_type    = 'nearest'
   sfwf_interp_inc     = 1.e20
   sfwf_restore_tau    = 1.e20
   sfwf_weak_restore   = .092
   sfwf_strong_restore = .6648
   sfwf_filename       = 'unknown-sfwf'
   sfwf_file_fmt       = 'bin'
   sfwf_data_renorm    = 1.
   ladjust_precip      = .false.
   lfw_as_salt_flx     = .true.
/

&forcing_pt_interior_nml
   pt_interior_formulation = 'none'
   pt_interior_data_type   = 'none'
   pt_interior_data_inc    = 1.e20
   pt_interior_interp_freq = 'never'
   pt_interior_interp_type = 'nearest'
   pt_interior_interp_inc  = 1.e20
   pt_interior_restore_tau = 1.e20
   pt_interior_filename    = 'unknown-pt_interior'
   pt_interior_file_fmt    = 'bin'
   pt_interior_data_renorm = 1.
   pt_interior_restore_max_level = 0
   pt_interior_variable_restore  = .false.
   pt_interior_restore_filename  = 'unknown-pt_interior_restore'
   pt_interior_restore_file_fmt  = 'bin'
/

&forcing_s_interior_nml
   s_interior_formulation = 'none'
   s_interior_data_type   = 'none'
   s_interior_data_inc    = 1.e20
   s_interior_interp_freq = 'never'
   s_interior_interp_type = 'nearest'
   s_interior_interp_inc  = 1.e20
   s_interior_restore_tau = 1.e20
   s_interior_filename    = 'unknown-s_interior'
   s_interior_file_fmt    = 'bin'
   s_interior_data_renorm = 1.
   s_interior_restore_max_level = 0
   s_interior_variable_restore  = .false.
   s_interior_restore_filename  = 'unknown-s_interior_restore'
   s_interior_restore_file_fmt  = 'bin'
/

&forcing_ap_nml
   ap_data_type   = 'none'
   ap_data_inc    = 1.e20
   ap_interp_freq = 'never'
   ap_interp_type = 'nearest'
   ap_interp_inc  = 1.e20
   ap_filename    = 'unknown-ap'
   ap_file_fmt    = 'bin'
   ap_data_renorm = 1.
/

&coupled_nml
   coupled_freq_opt = 'nday'
   coupled_freq     = 1
/

&sw_absorption_nml
   sw_absorption_type = 'chlorophyll'
   chl_filename       = 'INPUT/chl_data'
   jerlov_water_type  = 3
/

The present code makes assumptions about the region boundaries, so
DO NOT change transport_reg2_names unless you know exactly what you are doing.
&transports_nml
  lat_aux_grid_type    = 'southern'
  lat_aux_begin        = -90.0
  lat_aux_end          =  90.0
  n_lat_aux_grid       = 180 
  moc                  = .true.
  n_heat_trans         = .true.
  n_salt_trans         = .true.
  transport_reg2_names = 'Atlantic Ocean',
                         'Labrador Sea',
                         'GIN Sea',
                         'Arctic Ocean',
                         'Hudson Bay'
/  
