dt_count = 600
lcvmix = .false.
ltidal_mixing = .true.
