init_ecosys_init_file = '$DIN_LOC_ROOT/ocn/pop/gx3v7/ic/ecosys_jan_IC_gx3v7_20151210.nc'
