rest_time_inv_surf = 2.3e-6
rest_time_inv_deep = 2.3e-6
tracer_restore_vars = 'SiO3', 'NO3', 'PO4'
