tracer_restore_vars = 'SiO3', 'NO3', 'PO4'
