
pcfc_first_nonzero_year = 1995 ! allow startup to start before 1995

psf6_first_nonzero_year = 1995 ! allow startup to start before 1995
