abio_atm_co2_opt = 'file'
abio_atm_d14c_opt = 'file'
abio_atm_data_year = 1960
